Version 4
SHEET 1 1192 680
WIRE 912 -288 848 -288
WIRE 1056 -288 992 -288
WIRE 576 -208 448 -208
WIRE 448 -144 448 -208
WIRE 480 -144 448 -144
WIRE 576 -128 576 -208
WIRE 576 -128 544 -128
WIRE 672 -128 576 -128
WIRE 800 -128 752 -128
WIRE 848 -128 848 -288
WIRE 848 -128 800 -128
WIRE 912 -128 848 -128
WIRE 256 -112 176 -112
WIRE 400 -112 336 -112
WIRE 480 -112 400 -112
WIRE 1056 -112 1056 -288
WIRE 1056 -112 976 -112
WIRE 1136 -112 1056 -112
WIRE 912 -96 880 -96
WIRE 880 0 880 -96
WIRE 176 48 176 -112
WIRE 176 48 -16 48
WIRE 608 128 448 128
WIRE -16 160 -16 48
WIRE 448 192 448 128
WIRE 496 192 448 192
WIRE 608 208 608 128
WIRE 608 208 560 208
WIRE 688 208 608 208
WIRE 800 208 800 -128
WIRE 800 208 768 208
WIRE 176 224 176 48
WIRE 288 224 176 224
WIRE 432 224 352 224
WIRE 496 224 432 224
FLAG -16 240 0
FLAG 1136 -32 0
FLAG 880 0 0
FLAG 432 304 0
FLAG 400 -48 0
SYMBOL voltage -16 144 R0
WINDOW 123 24 124 Left 2
WINDOW 39 0 0 Left 0
SYMATTR InstName V1
SYMATTR Value ""
SYMATTR Value2 AC 0.001
SYMBOL res 352 -128 R90
WINDOW 0 0 56 VBottom 2
WINDOW 3 32 56 VTop 2
SYMATTR InstName R1
SYMATTR Value 29k
SYMBOL res 448 320 R180
WINDOW 0 36 76 Left 2
WINDOW 3 36 40 Left 2
SYMATTR InstName R2
SYMATTR Value 24.5k
SYMBOL OpAmps\\opamp 528 144 R0
SYMATTR InstName U1
SYMBOL OpAmps\\opamp 512 -192 R0
SYMATTR InstName U2
SYMBOL res 768 -144 R90
WINDOW 0 0 56 VBottom 2
WINDOW 3 32 56 VTop 2
SYMATTR InstName R3
SYMATTR Value 1k
SYMBOL res 784 192 R90
WINDOW 0 0 56 VBottom 2
WINDOW 3 32 56 VTop 2
SYMATTR InstName R4
SYMATTR Value 1k
SYMBOL OpAmps\\opamp 944 -176 R0
SYMATTR InstName U3
SYMBOL res 1008 -304 R90
WINDOW 0 0 56 VBottom 2
WINDOW 3 32 56 VTop 2
SYMATTR InstName R5
SYMATTR Value 1k
SYMBOL res 1120 -128 R0
SYMATTR InstName R6
SYMATTR Value 1
SYMBOL cap 384 -112 R0
SYMATTR InstName C1
SYMATTR Value 0.1µ
SYMBOL cap 352 208 R90
WINDOW 0 0 32 VBottom 2
WINDOW 3 32 32 VTop 2
SYMATTR InstName C2
SYMATTR Value 0.1µ
TEXT -224 -336 Left 2 !.lib opamp.sub
TEXT -64 -248 Left 2 !.ac lin 1000 1 100
