Version 4
SHEET 1 1828 820
WIRE -1072 128 -1216 128
WIRE -864 128 -992 128
WIRE -544 144 -704 144
WIRE -352 144 -480 144
WIRE 432 144 -32 144
WIRE -32 160 -32 144
WIRE -192 224 -256 224
WIRE -32 224 -112 224
WIRE 32 224 -32 224
WIRE 128 224 112 224
WIRE 256 256 144 256
WIRE -1328 304 -1392 304
WIRE -1216 304 -1216 128
WIRE -1216 304 -1264 304
WIRE -1184 304 -1216 304
WIRE -1088 304 -1120 304
WIRE -976 304 -1088 304
WIRE 144 304 144 256
WIRE 160 304 144 304
WIRE -864 320 -864 128
WIRE -864 320 -912 320
WIRE -832 320 -864 320
WIRE -704 320 -704 144
WIRE -704 320 -752 320
WIRE -672 320 -704 320
WIRE -576 320 -592 320
WIRE -464 320 -576 320
WIRE 256 320 256 256
WIRE 256 320 224 320
WIRE 336 320 256 320
WIRE 432 320 432 144
WIRE 432 320 416 320
WIRE 464 320 432 320
WIRE -1392 336 -1392 304
WIRE -976 336 -1008 336
WIRE -352 336 -352 144
WIRE -352 336 -400 336
WIRE -256 336 -256 224
WIRE -256 336 -352 336
WIRE 128 336 128 224
WIRE 160 336 128 336
WIRE -464 352 -496 352
WIRE -1088 368 -1088 304
WIRE -576 384 -576 320
WIRE -1008 416 -1008 336
WIRE -864 416 -864 320
WIRE -864 416 -1008 416
WIRE -496 432 -496 352
WIRE -464 432 -496 432
WIRE -352 432 -352 336
WIRE -352 432 -384 432
WIRE -496 448 -496 432
WIRE -256 448 -256 336
WIRE -176 448 -256 448
WIRE -32 448 -112 448
WIRE 32 448 -32 448
WIRE 128 448 128 336
WIRE 128 448 96 448
WIRE -32 544 -32 528
WIRE 432 544 432 320
WIRE 432 544 -32 544
WIRE -1088 560 -1088 448
WIRE -576 576 -576 448
FLAG -576 576 0
FLAG -1392 416 0
FLAG -1088 560 0
FLAG -496 528 0
FLAG 544 320 0
SYMBOL voltage -1392 320 R0
WINDOW 123 24 124 Left 2
WINDOW 39 0 0 Left 0
SYMATTR Value2 AC 0.5
SYMATTR InstName V1
SYMATTR Value ""
SYMBOL res -736 304 R90
WINDOW 0 0 56 VBottom 2
WINDOW 3 32 56 VTop 2
SYMATTR InstName R1
SYMATTR Value 330
SYMBOL res -576 304 R90
WINDOW 0 0 56 VBottom 2
WINDOW 3 32 56 VTop 2
SYMATTR InstName R2
SYMATTR Value 330
SYMBOL cap -592 384 R0
SYMATTR InstName C1
SYMATTR Value 1µ
SYMBOL cap -480 128 R90
WINDOW 0 0 32 VBottom 2
WINDOW 3 32 32 VTop 2
SYMATTR InstName C2
SYMATTR Value 1µ
SYMBOL OpAmps\\opamp -432 400 M180
SYMATTR InstName U2
SYMBOL cap -1264 288 R90
WINDOW 0 0 32 VBottom 2
WINDOW 3 32 32 VTop 2
SYMATTR InstName C5
SYMATTR Value 1µ
SYMBOL cap -1120 288 R90
WINDOW 0 0 32 VBottom 2
WINDOW 3 32 32 VTop 2
SYMATTR InstName C6
SYMATTR Value 1µ
SYMBOL res -976 112 R90
WINDOW 0 0 56 VBottom 2
WINDOW 3 32 56 VTop 2
SYMATTR InstName R8
SYMATTR Value 31.6k
SYMBOL res -1072 464 R180
WINDOW 0 36 76 Left 2
WINDOW 3 36 40 Left 2
SYMATTR InstName R9
SYMATTR Value 31.6k
SYMBOL OpAmps\\opamp -944 384 M180
SYMATTR InstName U3
SYMBOL res -368 416 R90
WINDOW 0 0 56 VBottom 2
WINDOW 3 32 56 VTop 2
SYMATTR InstName R3
SYMATTR Value 1k
SYMBOL res -480 544 R180
WINDOW 0 36 76 Left 2
WINDOW 3 36 40 Left 2
SYMATTR InstName R4
SYMATTR Value 1k
SYMBOL res -96 208 R90
WINDOW 0 0 56 VBottom 2
WINDOW 3 32 56 VTop 2
SYMATTR InstName R5
SYMATTR Value 2.7k
SYMBOL res 128 208 R90
WINDOW 0 0 56 VBottom 2
WINDOW 3 32 56 VTop 2
SYMATTR InstName R6
SYMATTR Value 2.7k
SYMBOL res -16 544 R180
WINDOW 0 36 76 Left 2
WINDOW 3 36 40 Left 2
SYMATTR InstName R7
SYMATTR Value 1.33k
SYMBOL cap -112 432 R90
WINDOW 0 0 32 VBottom 2
WINDOW 3 32 32 VTop 2
SYMATTR InstName C3
SYMATTR Value 1µ
SYMBOL cap 96 432 R90
WINDOW 0 0 32 VBottom 2
WINDOW 3 32 32 VTop 2
SYMATTR InstName C4
SYMATTR Value 1µ
SYMBOL cap -48 160 R0
SYMATTR InstName C8
SYMATTR Value 2µ
SYMBOL OpAmps\\opamp 192 256 R0
SYMATTR InstName U1
SYMBOL res 432 304 R90
WINDOW 0 0 56 VBottom 2
WINDOW 3 32 56 VTop 2
SYMATTR InstName R10
SYMATTR Value 10
SYMBOL res 560 304 R90
WINDOW 0 0 56 VBottom 2
WINDOW 3 32 56 VTop 2
SYMATTR InstName R11
SYMATTR Value 1k
TEXT -696 -24 Left 2 !.ac lin 10000 1 1000
TEXT -920 656 Left 2 ;bandpass 5-500 hz
TEXT -472 -24 Left 2 !.lib opamp.sub
TEXT 48 672 Left 2 ;notch 60 hz
